VIA - Model conformer
     RDKit          3D

 63 66  0  0  0  0  0  0  0  0999 V2000
   -0.1320   61.4670   80.1200 C   0  0  0  0  0  0  0  0  0  0  0  0
   -0.1690   61.7920   81.5890 C   0  0  0  0  0  0  0  0  0  0  0  0
   -1.2610   62.8640   81.9270 C   0  0  0  0  0  0  0  0  0  0  0  0
   -1.1140   63.0310   83.4050 C   0  0  0  0  0  0  0  0  0  0  0  0
   -1.7980   62.2800   84.3700 N   0  0  0  0  0  0  0  0  0  0  0  0
   -1.4140   62.6960   85.6120 N   0  0  0  0  0  0  0  0  0  0  0  0
   -1.9480   62.1110   86.8450 C   0  0  0  0  0  0  0  0  0  0  0  0
   -0.4950   63.7000   85.4400 C   0  0  0  0  0  0  0  0  0  0  0  0
    0.2600   64.5190   86.3460 C   0  0  0  0  0  0  0  0  0  0  0  0
    0.1800   64.4220   87.5490 O   0  0  0  0  0  0  0  0  0  0  0  0
    1.1250   65.4740   85.8160 N   0  0  0  0  0  0  0  0  0  0  0  0
    1.3080   65.6840   84.4420 C   0  0  0  0  0  0  0  0  0  0  0  0
    0.5970   64.9070   83.5200 N   0  0  0  0  0  0  0  0  0  0  0  0
   -0.2930   63.9280   84.0460 C   0  0  0  0  0  0  0  0  0  0  0  0
    2.2230   66.7020   84.0580 C   0  0  0  0  0  0  0  0  0  0  0  0
    1.7310   67.6550   83.0840 C   0  0  0  0  0  0  0  0  0  0  0  0
    2.5680   68.7580   82.6170 C   0  0  0  0  0  0  0  0  0  0  0  0
    3.9520   68.8600   83.1800 C   0  0  0  0  0  0  0  0  0  0  0  0
    4.4660   67.9110   84.1620 C   0  0  0  0  0  0  0  0  0  0  0  0
    3.6090   66.8060   84.6330 C   0  0  0  0  0  0  0  0  0  0  0  0
    4.0190   65.8300   85.6200 O   0  0  0  0  0  0  0  0  0  0  0  0
    5.3040   65.8030   86.2730 C   0  0  0  0  0  0  0  0  0  0  0  0
    5.2340   64.6230   87.2280 C   0  0  0  0  0  0  0  0  0  0  0  0
    2.0230   69.8310   81.5610 S   0  0  0  0  0  6  0  0  0  0  0  0
    2.3130   69.6000   80.2940 O   0  0  0  0  0  0  0  0  0  0  0  0
    0.7120   69.8610   81.6110 O   0  0  0  0  0  0  0  0  0  0  0  0
    2.6900   71.1590   82.1270 N   0  0  0  0  0  0  0  0  0  0  0  0
    1.7240   72.0870   82.9630 C   0  0  0  0  0  0  0  0  0  0  0  0
    0.8200   73.0570   82.1780 C   0  0  0  0  0  0  0  0  0  0  0  0
    1.4260   73.6860   80.9560 N   0  0  0  0  0  0  0  0  0  0  0  0
    1.5570   75.1560   81.2010 C   0  0  0  0  0  0  0  0  0  0  0  0
    2.7520   73.1450   80.4160 C   0  0  0  0  0  0  0  0  0  0  0  0
    3.5390   72.0920   81.2850 C   0  0  0  0  0  0  0  0  0  0  0  0
    0.0010   62.3880   79.5060 H   0  0  0  0  0  0  0  0  0  0  0  0
    0.6450   60.7040   79.8800 H   0  0  0  0  0  0  0  0  0  0  0  0
   -1.1360   61.1520   79.7500 H   0  0  0  0  0  0  0  0  0  0  0  0
    0.8350   62.1070   81.9590 H   0  0  0  0  0  0  0  0  0  0  0  0
   -0.3020   60.8710   82.2040 H   0  0  0  0  0  0  0  0  0  0  0  0
   -2.2910   62.6050   81.5870 H   0  0  0  0  0  0  0  0  0  0  0  0
   -1.1850   63.8090   81.3410 H   0  0  0  0  0  0  0  0  0  0  0  0
   -1.7800   61.0100   86.7940 H   0  0  0  0  0  0  0  0  0  0  0  0
   -1.6340   62.4510   87.8600 H   0  0  0  0  0  0  0  0  0  0  0  0
   -3.0600   62.1840   86.7960 H   0  0  0  0  0  0  0  0  0  0  0  0
    1.6540   66.0510   86.4700 H   0  0  0  0  0  0  0  0  0  0  0  0
    0.7060   67.5390   82.6930 H   0  0  0  0  0  0  0  0  0  0  0  0
    4.6240   69.6720   82.8560 H   0  0  0  0  0  0  0  0  0  0  0  0
    5.4940   68.0280   84.5450 H   0  0  0  0  0  0  0  0  0  0  0  0
    5.5820   66.7650   86.7630 H   0  0  0  0  0  0  0  0  0  0  0  0
    6.1680   65.7640   85.5690 H   0  0  0  0  0  0  0  0  0  0  0  0
    4.9560   63.6610   86.7380 H   0  0  0  0  0  0  0  0  0  0  0  0
    6.2280   64.6020   87.7330 H   0  0  0  0  0  0  0  0  0  0  0  0
    4.3700   64.6620   87.9320 H   0  0  0  0  0  0  0  0  0  0  0  0
    2.3190   72.6600   83.7120 H   0  0  0  0  0  0  0  0  0  0  0  0
    1.0950   71.4570   83.6340 H   0  0  0  0  0  0  0  0  0  0  0  0
    0.4370   73.8510   82.8600 H   0  0  0  0  0  0  0  0  0  0  0  0
   -0.1340   72.5470   81.9060 H   0  0  0  0  0  0  0  0  0  0  0  0
    2.1270   75.3870   82.1310 H   0  0  0  0  0  0  0  0  0  0  0  0
    2.0070   75.6230   80.2940 H   0  0  0  0  0  0  0  0  0  0  0  0
    0.5910   75.6300   81.4940 H   0  0  0  0  0  0  0  0  0  0  0  0
    3.4270   74.0020   80.1840 H   0  0  0  0  0  0  0  0  0  0  0  0
    2.5850   72.7230   79.3980 H   0  0  0  0  0  0  0  0  0  0  0  0
    4.2220   71.4980   80.6340 H   0  0  0  0  0  0  0  0  0  0  0  0
    4.2830   72.6140   81.9310 H   0  0  0  0  0  0  0  0  0  0  0  0
  1  2  1  0
  1 34  1  0
  1 35  1  0
  1 36  1  0
  2  3  1  0
  2 37  1  0
  2 38  1  0
  3  4  1  0
  3 39  1  0
  3 40  1  0
  4  5  2  0
  4 14  1  0
  5  6  1  0
  6  7  1  0
  6  8  1  0
  7 41  1  0
  7 42  1  0
  7 43  1  0
  8  9  1  0
  8 14  2  0
  9 10  2  0
  9 11  1  0
 11 12  1  0
 11 44  1  0
 12 13  2  0
 12 15  1  0
 13 14  1  0
 15 16  2  0
 15 20  1  0
 16 17  1  0
 16 45  1  0
 17 18  2  0
 17 24  1  0
 18 19  1  0
 18 46  1  0
 19 20  2  0
 19 47  1  0
 20 21  1  0
 21 22  1  0
 22 23  1  0
 22 48  1  0
 22 49  1  0
 23 50  1  0
 23 51  1  0
 23 52  1  0
 24 25  2  0
 24 26  2  0
 24 27  1  0
 27 28  1  0
 27 33  1  0
 28 29  1  0
 28 53  1  0
 28 54  1  0
 29 30  1  0
 29 55  1  0
 29 56  1  0
 30 31  1  0
 30 32  1  0
 31 57  1  0
 31 58  1  0
 31 59  1  0
 32 33  1  0
 32 60  1  0
 32 61  1  0
 33 62  1  0
 33 63  1  0
M  END
$$$$
